matlab/SFINA/UCTE_2002_Winter_Peak_MatPower.m
function [baseMVA, bus, gen, branch, areas, gencost] = UCTE_2002_Winter_Peak_MatPower
%UCTE_2002_WINTER_PEAK_MATPOWER  UCTE_2002_WINTER_PEAK_MATPOWER
%  Please see 'help caseformat' for details on the case file format.
%  This data was converted from IEEE Common Data Format
%  (UCTE_2002_Winter_Peak.cf) on 25-Mar-2015 by cdf2matp, rev. 1.17
%  See end of file for warnings generated during conversion.
%
%03/11/02JOFORPT200.02000SPORTUG 100.0 SE

%% MATPOWER Case Format : Version 1

%%-----  Power Flow Data  -----%%
%% system MVA base
baseMVA = 100;

%% bus data
%	bus_i	type	Pd	Qd	Gs	Bs	area	Vm	Va	baseKV	zone	Vmax	Vmin
bus = [
	1	3	0	0	0	0	1	1.04	14.81	380	201	1.06	0.94;
	2	1	1117.53	0	0	0	1	1	4.26	380	201	1.06	0.94;
	3	1	53.46	0	0	0	1	1	22.54	380	201	1.06	0.94;
	4	2	0	0	0	0	1	1	28.37	380	201	1.06	0.94;
	5	2	0	0	0	0	1	1	15.83	380	201	1.06	0.94;
	6	1	1247.64	0	0	0	1	1	2.23	380	201	1.06	0.94;
	7	2	0	0	0	0	1	1	7.83	380	201	1.06	0.94;
	8	2	0	0	0	0	1	1	10.19	380	201	1.06	0.94;
	9	1	107.92	0	0	0	1	1	2.22	380	201	1.06	0.94;
	10	1	264.25	0	0	0	1	1	-7.77	380	201	1.06	0.94;
	11	1	85.73	0	0	0	1	1	-2.29	380	201	1.06	0.94;
	12	1	107.92	0	0	0	1	1	-7.65	380	201	1.06	0.94;
	13	1	161.38	0	0	0	1	1	-3.44	380	201	1.06	0.94;
	14	2	0	0	0	0	1	1	1.42	380	201	1.06	0.94;
	15	1	470.01	0	0	0	1	1	-4.67	380	201	1.06	0.94;
	16	1	107.92	0	0	0	1	1	-4.36	380	201	1.06	0.94;
	17	1	313.67	0	0	0	1	1	-0.8	380	201	1.06	0.94;
	18	1	268.29	0	0	0	1	1	-2.86	380	201	1.06	0.94;
	19	2	0	0	0	0	1	1	8.69	380	201	1.06	0.94;
	20	1	986.41	-400	0	0	1	1	7.08	380	201	1.06	0.94;
	21	1	561.79	-200	0	0	1	1	10.53	380	201	1.06	0.94;
	22	1	263.24	-100	0	0	1	1	4.77	380	201	1.06	0.94;
	23	2	0	0	0	0	1	1	31.08	380	201	1.06	0.94;
	24	2	0	0	0	0	1	1	48.81	380	201	1.06	0.94;
	25	1	364.11	0	0	0	2	1	14.61	380	202	1.06	0.94;
	26	1	505.51	0	0	0	2	1	35	380	203	1.06	0.94;
	27	2	0	0	0	0	2	1	16.68	380	217	1.06	0.94;
	28	2	0	0	0	0	2	1	39.8	380	217	1.06	0.94;
	29	2	0	0	0	0	2	1	16.13	380	217	1.06	0.94;
	30	1	505.51	0	0	0	2	1	24.55	380	203	1.06	0.94;
	31	2	0	0	0	0	2	1	34.12	380	217	1.06	0.94;
	32	2	0	0	0	0	2	1	34.7	380	217	1.06	0.94;
	33	2	0	0	0	0	2	1	41.09	380	217	1.06	0.94;
	34	1	364.11	0	0	0	2	1	5.36	380	202	1.06	0.94;
	35	1	163.32	0	0	0	2	1	18.85	380	204	1.06	0.94;
	36	1	364.15	-300	0	0	2	1	-4.54	380	202	1.06	0.94;
	37	1	243.63	0	0	0	2	1	8.44	380	205	1.06	0.94;
	38	1	163.32	0	0	0	2	1	17.59	380	204	1.06	0.94;
	39	2	0	0	0	0	2	1	14.22	380	217	1.06	0.94;
	40	1	364.15	-200	0	0	2	1	-5.93	380	202	1.06	0.94;
	41	1	243.63	0	0	0	2	1	5.88	380	205	1.06	0.94;
	42	2	0	0	0	0	2	1	20.62	380	217	1.06	0.94;
	43	1	243.63	0	0	0	2	1	9.76	380	205	1.06	0.94;
	44	1	364.15	-200	0	0	2	1	-14.37	380	202	1.06	0.94;
	45	1	97.09	0	0	0	2	1	9.01	380	213	1.06	0.94;
	46	2	0	0	0	0	2	1	21.38	380	217	1.06	0.94;
	47	1	97.09	0	0	0	2	1	24.8	380	213	1.06	0.94;
	48	1	243.63	0	0	0	2	1	5.4	380	205	1.06	0.94;
	49	1	243.63	0	0	0	2	1	9.25	380	205	1.06	0.94;
	50	2	0	0	0	0	2	1	36.49	380	217	1.06	0.94;
	51	2	0	0	0	0	2	1	27.39	380	217	1.06	0.94;
	52	2	0	0	0	0	2	1	25.67	380	217	1.06	0.94;
	53	2	0	0	0	0	2	1	24.28	380	217	1.06	0.94;
	54	2	0	0	0	0	2	1	22.44	380	217	1.06	0.94;
	55	1	364.11	0	0	0	2	1	13.48	380	202	1.06	0.94;
	56	1	97.09	0	0	0	2	1	19.49	380	213	1.06	0.94;
	57	1	163.32	0	0	0	2	1	17.54	380	204	1.06	0.94;
	58	1	243.63	0	0	0	2	1	4.47	380	205	1.06	0.94;
	59	1	243.63	0	0	0	2	1	5.82	380	205	1.06	0.94;
	60	1	97.09	0	0	0	2	1	6.98	380	213	1.06	0.94;
	61	2	0	0	0	0	2	1	28.74	380	217	1.06	0.94;
	62	1	243.63	0	0	0	2	1	3.68	380	205	1.06	0.94;
	63	1	97.09	0	0	0	2	1	24.06	380	213	1.06	0.94;
	64	2	0	0	0	0	2	1	11.75	380	217	1.06	0.94;
	65	1	161.24	-100	0	0	2	1	16.46	380	206	1.06	0.94;
	66	1	163.32	0	0	0	2	1	64.75	380	208	1.06	0.94;
	67	1	61.54	0	0	0	2	1	7.81	380	207	1.06	0.94;
	68	2	0	0	0	0	2	1	31.09	380	217	1.06	0.94;
	69	1	97.09	0	0	0	2	1	21.12	380	213	1.06	0.94;
	70	1	97.09	0	0	0	2	1	14.26	380	213	1.06	0.94;
	71	2	0	0	0	0	2	1	31.38	380	217	1.06	0.94;
	72	2	0	0	0	0	2	1	89.18	380	217	1.06	0.94;
	73	1	97.09	0	0	0	2	1	18.44	380	213	1.06	0.94;
	74	1	364.11	0	0	0	2	1	17.56	380	202	1.06	0.94;
	75	2	0	0	0	0	2	1	62.8	380	217	1.06	0.94;
	76	2	0	0	0	0	2	1	29.75	380	217	1.06	0.94;
	77	1	161.24	-200	0	0	2	1	26.4	380	206	1.06	0.94;
	78	2	0	0	0	0	2	1	72.68	380	217	1.06	0.94;
	79	2	0	0	0	0	2	1	23.55	380	217	1.06	0.94;
	80	2	0	0	0	0	2	1	29.76	380	217	1.06	0.94;
	81	2	0	0	0	0	2	1	93.7	380	217	1.06	0.94;
	82	1	161.24	-100	0	0	2	1	17.75	380	206	1.06	0.94;
	83	2	0	0	0	0	2	1	83.23	380	217	1.06	0.94;
	84	2	0	0	0	0	2	1	84.48	380	217	1.06	0.94;
	85	1	61.54	0	0	0	2	1	12.1	380	207	1.06	0.94;
	86	1	163.32	0	0	0	2	1	66.55	380	208	1.06	0.94;
	87	2	0	0	0	0	2	1	33.26	380	217	1.06	0.94;
	88	1	97.09	0	0	0	2	1	9.39	380	213	1.06	0.94;
	89	1	61.54	0	0	0	2	1	16.49	380	207	1.06	0.94;
	90	2	0	0	0	0	2	1	70.49	380	217	1.06	0.94;
	91	2	0	0	0	0	2	1	39.67	380	217	1.06	0.94;
	92	1	97.09	0	0	0	2	1	26.58	380	213	1.06	0.94;
	93	1	163.32	0	0	0	2	1	70.57	380	208	1.06	0.94;
	94	1	61.54	0	0	0	2	1	20.75	380	207	1.06	0.94;
	95	1	97.09	0	0	0	2	1	6.22	380	213	1.06	0.94;
	96	1	163.32	0	0	0	2	1	66.93	380	208	1.06	0.94;
	97	2	0	0	0	0	2	1	25.67	380	217	1.06	0.94;
	98	2	0	0	0	0	2	1	33.33	380	217	1.06	0.94;
	99	1	97.09	0	0	0	2	1	7.66	380	213	1.06	0.94;
	100	1	163.27	0	0	0	2	1	54.86	380	208	1.06	0.94;
	101	2	0	0	0	0	2	1	62.81	380	217	1.06	0.94;
	102	1	97.09	0	0	0	2	1	13.67	380	213	1.06	0.94;
	103	1	137.9	0	0	0	2	1	60.61	380	216	1.06	0.94;
	104	1	137.94	-100	0	0	2	1	20.11	380	216	1.06	0.94;
	105	1	97.1	-350	0	0	2	1	8.5	380	213	1.06	0.94;
	106	1	163.32	0	0	0	2	1	62.85	380	208	1.06	0.94;
	107	1	137.94	-100	0	0	2	1	42.23	380	216	1.06	0.94;
	108	1	137.94	-100	0	0	2	1	25	380	216	1.06	0.94;
	109	1	97.06	-50	0	0	2	1	1.53	380	213	1.06	0.94;
	110	1	97.09	0	0	0	2	1	16.64	380	213	1.06	0.94;
	111	1	163.32	0	0	0	2	1	60.78	380	208	1.06	0.94;
	112	1	97.1	-150	0	0	2	1	2.57	380	213	1.06	0.94;
	113	1	97.09	0	0	0	2	1	4.86	380	213	1.06	0.94;
	114	2	0	0	0	0	2	1	7.96	380	217	1.06	0.94;
	115	1	163.32	0	0	0	2	1	63.72	380	208	1.06	0.94;
	116	1	97.1	-150	0	0	2	1	3.45	380	213	1.06	0.94;
	117	1	163.32	0	0	0	2	1	47.94	380	208	1.06	0.94;
	118	1	163.32	0	0	0	2	1	62.39	380	208	1.06	0.94;
	119	1	137.94	-100	0	0	2	1	39.35	380	216	1.06	0.94;
	120	1	137.94	-100	0	0	2	1	16.75	380	216	1.06	0.94;
	121	1	137.94	-100	0	0	2	1	40.86	380	216	1.06	0.94;
	122	1	163.32	0	0	0	2	1	62.33	380	208	1.06	0.94;
	123	1	97.06	-300	0	0	2	1	27.18	380	213	1.06	0.94;
	124	1	163.3	-100	0	0	2	1	42.99	380	208	1.06	0.94;
	125	1	97.1	-150	0	0	2	1	2.64	380	213	1.06	0.94;
	126	2	0	0	0	0	2	1	67.29	380	217	1.06	0.94;
	127	2	0	0	0	0	2	1	6.44	380	217	1.06	0.94;
	128	2	0	0	0	0	2	1	57.93	380	217	1.06	0.94;
	129	1	163.32	0	0	0	2	1	62.15	380	208	1.06	0.94;
	130	1	163.32	0	0	0	2	1	58.02	380	208	1.06	0.94;
	131	1	137.9	0	0	0	2	1	47.73	380	216	1.06	0.94;
	132	2	0	0	0	0	2	1	67.07	380	217	1.06	0.94;
	133	2	0	0	0	0	2	1	5.16	380	217	1.06	0.94;
	134	1	163.32	0	0	0	2	1	61.18	380	208	1.06	0.94;
	135	1	97.09	0	0	0	2	1	4.97	380	213	1.06	0.94;
	136	2	0	0	0	0	2	1	54.84	380	217	1.06	0.94;
	137	1	163.3	-100	0	0	2	1	44.77	380	208	1.06	0.94;
	138	2	0	0	0	0	2	1	64.09	380	217	1.06	0.94;
	139	1	163.32	0	0	0	2	1	59.85	380	208	1.06	0.94;
	140	1	97.06	-100	0	0	2	1	-11.5	380	213	1.06	0.94;
	141	2	0	0	0	0	2	1	62.52	380	217	1.06	0.94;
	142	1	97.06	-100	0	0	2	1	-18.28	380	213	1.06	0.94;
	143	2	0	0	0	0	2	1	54.9	380	217	1.06	0.94;
	144	2	0	0	0	0	2	1	-23.56	380	217	1.06	0.94;
	145	1	666.53	-300	0	0	2	1	-30.2	380	214	1.06	0.94;
	146	1	666.53	-300	0	0	2	1	-28.96	380	214	1.06	0.94;
	147	1	666.53	-300	0	0	2	1	-25.27	380	214	1.06	0.94;
	148	1	122.35	-100	0	0	2	1	-30.32	380	215	1.06	0.94;
	149	1	666.53	-400	0	0	2	1	-29.06	380	214	1.06	0.94;
	150	1	413.8	-400	0	0	2	1	34.29	380	210	1.06	0.94;
	151	1	666.53	-300	0	0	2	1	-31.69	380	214	1.06	0.94;
	152	2	0	0	0	0	2	1	-27.21	380	217	1.06	0.94;
	153	2	0	0	0	0	2	1	12.61	380	217	1.06	0.94;
	154	1	666.53	-300	0	0	2	1	-30.11	380	214	1.06	0.94;
	155	1	122.37	0	0	0	2	1	-19.85	380	215	1.06	0.94;
	156	1	666.53	-300	0	0	2	1	-45.81	380	214	1.06	0.94;
	157	1	198.84	0	0	0	2	1	-33.66	380	212	1.06	0.94;
	158	1	122.37	0	0	0	2	1	-35.26	380	215	1.06	0.94;
	159	2	0	0	0	0	2	1	17.06	380	217	1.06	0.94;
	160	2	0	0	0	0	2	1	-44.96	380	217	1.06	0.94;
	161	2	0	0	0	0	2	1	-1.52	380	217	1.06	0.94;
	162	2	0	0	0	0	2	1	16.63	380	217	1.06	0.94;
	163	2	0	0	0	0	2	1	-16.05	380	217	1.06	0.94;
	164	2	0	0	0	0	2	1	-15.35	380	217	1.06	0.94;
	165	2	0	0	0	0	2	1	-4.28	380	217	1.06	0.94;
	166	2	0	0	0	0	2	1	-3.98	380	217	1.06	0.94;
	167	1	122.37	0	0	0	2	1	-52.83	380	215	1.06	0.94;
	168	1	122.37	0	0	0	2	1	-30.84	380	215	1.06	0.94;
	169	1	198.84	0	0	0	2	1	-13.67	380	212	1.06	0.94;
	170	1	413.83	-200	0	0	2	1	-4.35	380	210	1.06	0.94;
	171	1	122.37	0	0	0	2	1	-58.14	380	215	1.06	0.94;
	172	1	413.83	-200	0	0	2	1	-7.22	380	210	1.06	0.94;
	173	1	122.37	0	0	0	2	1	-63.61	380	215	1.06	0.94;
	174	2	0	0	0	0	2	1	-47.61	380	217	1.06	0.94;
	175	1	413.83	0	0	0	2	1	-15.67	380	210	1.06	0.94;
	176	2	0	0	0	0	2	1	-12.05	380	217	1.06	0.94;
	177	1	413.83	-200	0	0	2	1	-22.9	380	210	1.06	0.94;
	178	1	198.82	-200	0	0	2	1	-37.72	380	212	1.06	0.94;
	179	1	122.4	-250	0	0	2	1	-68.42	380	215	1.06	0.94;
	180	1	122.35	-100	0	0	2	1	-41.88	380	215	1.06	0.94;
	181	1	122.37	0	0	0	2	1	-72.15	380	215	1.06	0.94;
	182	1	122.37	0	0	0	2	1	-72.82	380	215	1.06	0.94;
	183	1	413.83	0	0	0	2	1	-27.63	380	210	1.06	0.94;
	184	2	0	0	0	0	2	1	-76.27	380	217	1.06	0.94;
	185	1	122.35	-100	0	0	2	1	-47.04	380	215	1.06	0.94;
	186	1	413.83	-200	0	0	2	1	-31.21	380	210	1.06	0.94;
	187	1	122.35	-100	0	0	2	1	-81.59	380	215	1.06	0.94;
	188	1	198.82	-200	0	0	2	1	-53.16	380	212	1.06	0.94;
	189	1	413.83	-200	0	0	2	1	-33.28	380	210	1.06	0.94;
	190	1	198.82	-100	0	0	2	1	-55.15	380	212	1.06	0.94;
	191	1	446.92	-200	0	0	2	1	-84.53	380	211	1.06	0.94;
	192	1	254.82	0	0	0	2	1	-50.84	380	209	1.06	0.94;
	193	1	446.9	-600	0	0	2	1	-77.83	380	211	1.06	0.94;
	194	1	446.9	-400	0	0	2	1	-88.53	380	211	1.06	0.94;
	195	1	446.92	-200	0	0	2	1	-89.18	380	211	1.06	0.94;
	196	1	254.82	0	0	0	2	1	-52.06	380	209	1.06	0.94;
	197	1	413.83	0	0	0	2	1	-50.21	380	210	1.06	0.94;
	198	1	254.82	0	0	0	2	1	-48.63	380	209	1.06	0.94;
	199	2	0	0	0	0	2	1	-65.46	380	217	1.06	0.94;
	200	1	254.82	0	0	0	2	1	-46.49	380	209	1.06	0.94;
...
];

%% generator data
%	bus	Pg	Qg	Qmax	Qmin	Vg	mBase	status	Pmax	Pmin
gen = [
	1	833.23	0	30000	-30000	1.04	100	1	32326.081	0;
	4	805.63	0	30000	-30000	1.04	100	1	905.63	0;
	5	317.61	0	30000	-30000	1.04	100	1	417.61	0;
	7	237.96	0	30000	-30000	1.04	100	1	337.96	0;
	8	246.03	0	30000	-30000	1.04	100	1	346.03	0;
	14	444.66	0	30000	-30000	1.04	100	1	544.66	0;
	19	772.36	0	30000	-30000	1.04	100	1	872.36	0;
	23	1189.79	0	30000	-30000	1.04	100	1	1289.79	0;
	24	1269.45	0	30000	-30000	1.04	100	1	1369.45	0;
	27	188.67	0	30000	-30000	1.04	100	1	288.67	0;
	28	864.11	0	30000	-30000	1.04	100	1	964.11	0;
	29	974.48	0	30000	-30000	1.04	100	1	1074.48	0;
	31	188.67	0	30000	-30000	1.04	100	1	288.67	0;
	32	483.94	0	30000	-30000	1.04	100	1	583.94	0;
	33	632.99	0	30000	-30000	1.04	100	1	732.99	0;
	39	204.71	0	30000	-30000	1.04	100	1	304.71	0;
	42	359.75	0	30000	-30000	1.04	100	1	459.75	0;
	46	359.75	0	30000	-30000	1.04	100	1	459.75	0;
	50	359.75	0	30000	-30000	1.04	100	1	459.75	0;
	51	617.9	0	30000	-30000	1.04	100	1	717.9	0;
	52	359.75	0	30000	-30000	1.04	100	1	459.75	0;
	53	344.32	0	30000	-30000	1.04	100	1	444.32	0;
	54	486.77	0	30000	-30000	1.04	100	1	586.77	0;
	61	359.75	0	30000	-30000	1.04	100	1	459.75	0;
	64	188.67	0	30000	-30000	1.04	100	1	288.67	0;
	68	359.75	0	30000	-30000	1.04	100	1	459.75	0;
	71	359.75	0	30000	-30000	1.04	100	1	459.75	0;
	72	359.75	0	30000	-30000	1.04	100	1	459.75	0;
	75	359.75	0	30000	-30000	1.04	100	1	459.75	0;
	76	359.75	0	30000	-30000	1.04	100	1	459.75	0;
	78	359.75	0	30000	-30000	1.04	100	1	459.75	0;
	79	359.75	0	30000	-30000	1.04	100	1	459.75	0;
	80	359.75	0	30000	-30000	1.04	100	1	459.75	0;
	81	359.75	0	30000	-30000	1.04	100	1	459.75	0;
	83	359.75	0	30000	-30000	1.04	100	1	459.75	0;
	84	359.75	0	30000	-30000	1.04	100	1	459.75	0;
	87	359.75	0	30000	-30000	1.04	100	1	459.75	0;
	90	359.75	0	30000	-30000	1.04	100	1	459.75	0;
	91	359.75	0	30000	-30000	1.04	100	1	459.75	0;
	97	359.75	0	30000	-30000	1.04	100	1	459.75	0;
	98	359.75	0	30000	-30000	1.04	100	1	459.75	0;
	101	359.75	0	30000	-30000	1.04	100	1	459.75	0;
	114	359.75	0	30000	-30000	1.04	100	1	459.75	0;
	126	324.51	0	30000	-30000	1.04	100	1	424.51	0;
	127	359.75	0	30000	-30000	1.04	100	1	459.75	0;
	128	359.75	0	30000	-30000	1.04	100	1	459.75	0;
	132	490.54	0	30000	-30000	1.04	100	1	590.54	0;
	133	359.75	0	30000	-30000	1.04	100	1	459.75	0;
	136	1039.57	0	30000	-30000	1.04	100	1	1139.57	0;
	138	1938.58	0	30000	-30000	1.04	100	1	2038.58	0;
	141	1025.42	0	30000	-30000	1.04	100	1	1125.42	0;
	143	150.94	0	30000	-30000	1.04	100	1	250.94	0;
	144	1005.61	0	30000	-30000	1.04	100	1	1105.61	0;
	152	150.94	0	30000	-30000	1.04	100	1	250.94	0;
	153	359.75	0	30000	-30000	1.04	100	1	459.75	0;
	159	1022.59	0	30000	-30000	1.04	100	1	1122.59	0;
	160	296.21	0	30000	-30000	1.04	100	1	396.21	0;
	161	359.75	0	30000	-30000	1.04	100	1	459.75	0;
	162	359.75	0	30000	-30000	1.04	100	1	459.75	0;
	163	359.75	0	30000	-30000	1.04	100	1	459.75	0;
	164	1846.13	0	30000	-30000	1.04	100	1	1946.13	0;
	165	359.75	0	30000	-30000	1.04	100	1	459.75	0;
	166	359.75	0	30000	-30000	1.04	100	1	459.75	0;
	174	359.75	0	30000	-30000	1.04	100	1	459.75	0;
	176	966.93	0	30000	-30000	1.04	100	1	1066.93	0;
	184	397.15	0	30000	-30000	1.04	100	1	497.15	0;
	199	359.75	0	30000	-30000	1.04	100	1	459.75	0;
	201	809.4	0	30000	-30000	1.04	100	1	909.4	0;
	207	107.54	0	30000	-30000	1.04	100	1	207.54	0;
	208	359.75	0	30000	-30000	1.04	100	1	459.75	0;
	215	710.34	0	30000	-30000	1.04	100	1	810.34	0;
	216	535.82	0	30000	-30000	1.04	100	1	635.82	0;
	217	377.87	0	30000	-30000	1.04	100	1	477.87	0;
	218	4408.44	0	30000	-30000	1.04	100	1	4508.44	0;
	224	786.42	0	30000	-30000	1.04	100	1	886.42	0;
	226	195.39	0	30000	-30000	1.04	100	1	295.39	0;
	228	2041.5	0	30000	-30000	1.04	100	1	2141.5	0;
	231	2099.25	0	30000	-30000	1.04	100	1	2199.25	0;
	233	826.76	0	30000	-30000	1.04	100	1	926.76	0;
	235	4198.52	0	30000	-30000	1.04	100	1	4298.52	0;
	244	4198.52	0	30000	-30000	1.04	100	1	4298.52	0;
	248	1614.81	0	30000	-30000	1.04	100	1	1714.81	0;
	250	2099.25	0	30000	-30000	1.04	100	1	2199.25	0;
	255	703.7	0	30000	-30000	1.04	100	1	803.7	0;
	257	887.6	0	30000	-30000	1.04	100	1	987.6	0;
	273	826.76	0	30000	-30000	1.04	100	1	926.76	0;
	274	161.48	0	30000	-30000	1.04	100	1	261.48	0;
	275	1889.34	0	30000	-30000	1.04	100	1	1989.34	0;
	278	807.41	0	30000	-30000	1.04	100	1	907.41	0;
	289	1235.33	0	30000	-30000	1.04	100	1	1335.33	0;
	300	826.76	0	30000	-30000	1.04	100	1	926.76	0;
	304	2099.25	0	30000	-30000	1.04	100	1	2199.25	0;
	313	592.63	0	30000	-30000	1.04	100	1	692.63	0;
	315	826.76	0	30000	-30000	1.04	100	1	926.76	0;
	344	921	0	30000	-30000	1.04	100	1	1021	0;
	348	2906.66	0	30000	-30000	1.04	100	1	3006.66	0;
	352	1453.33	0	30000	-30000	1.04	100	1	1553.33	0;
	357	2099.25	0	30000	-30000	1.04	100	1	2199.25	0;
	370	2906.66	0	30000	-30000	1.04	100	1	3006.66	0;
	373	363.34	0	30000	-30000	1.04	100	1	463.34	0;
	387	200.23	0	30000	-30000	1.04	100	1	300.23	0;
	394	826.76	0	30000	-30000	1.04	100	1	926.76	0;
	398	2341.48	0	30000	-30000	1.04	100	1	2441.48	0;
	407	826.76	0	30000	-30000	1.04	100	1	926.76	0;
	422	2955.11	0	30000	-30000	1.04	100	1	3055.11	0;
	424	826.76	0	30000	-30000	1.04	100	1	926.76	0;
	427	807.41	0	30000	-30000	1.04	100	1	907.41	0;
	437	2099.25	0	30000	-30000	1.04	100	1	2199.25	0;
	439	826.76	0	30000	-30000	1.04	100	1	926.76	0;
	443	826.76	0	30000	-30000	1.04	100	1	926.76	0;
	444	826.76	0	30000	-30000	1.04	100	1	926.76	0;
	445	826.76	0	30000	-30000	1.04	100	1	926.76	0;
	449	2906.66	0	30000	-30000	1.04	100	1	3006.66	0;
	454	826.76	0	30000	-30000	1.04	100	1	926.76	0;
	458	161.48	0	30000	-30000	1.04	100	1	261.48	0;
	460	826.76	0	30000	-30000	1.04	100	1	926.76	0;
	461	833.56	0	30000	-30000	1.04	100	1	933.56	0;
	466	826.76	0	30000	-30000	1.04	100	1	926.76	0;
	467	972.76	0	30000	-30000	1.04	100	1	1072.76	0;
	469	826.76	0	30000	-30000	1.04	100	1	926.76	0;
	478	2099.25	0	30000	-30000	1.04	100	1	2199.25	0;
	480	826.76	0	30000	-30000	1.04	100	1	926.76	0;
	486	826.76	0	30000	-30000	1.04	100	1	926.76	0;
	488	826.76	0	30000	-30000	1.04	100	1	926.76	0;
	490	2099.25	0	30000	-30000	1.04	100	1	2199.25	0;
	492	403.7	0	30000	-30000	1.04	100	1	503.7	0;
	493	826.76	0	30000	-30000	1.04	100	1	926.76	0;
	494	403.7	0	30000	-30000	1.04	100	1	503.7	0;
	497	826.76	0	30000	-30000	1.04	100	1	926.76	0;
	531	826.76	0	30000	-30000	1.04	100	1	926.76	0;
	535	4003.18	0	30000	-30000	1.04	100	1	4103.18	0;
	539	504.45	0	30000	-30000	1.04	100	1	604.45	0;
	540	609.18	0	30000	-30000	1.04	100	1	709.18	0;
	541	192.17	0	30000	-30000	1.04	100	1	292.17	0;
	545	666	0	30000	-30000	1.04	100	1	766	0;
	547	2846.05	0	30000	-30000	1.04	100	1	2946.05	0;
	548	399.72	0	30000	-30000	1.04	100	1	499.72	0;
	550	248.86	0	30000	-30000	1.04	100	1	348.86	0;
	551	1118.43	0	30000	-30000	1.04	100	1	1218.43	0;
	555	114.29	0	30000	-30000	1.04	100	1	214.29	0;
	556	245.05	0	30000	-30000	1.04	100	1	345.05	0;
	558	661.19	0	30000	-30000	1.04	100	1	761.19	0;
	559	1634.81	0	30000	-30000	1.04	100	1	1734.81	0;
	569	81.95	0	30000	-30000	1.04	100	1	181.95	0;
	574	236.01	0	30000	-30000	1.04	100	1	336.01	0;
	575	290.91	0	30000	-30000	1.04	100	1	390.91	0;
	576	240.92	0	30000	-30000	1.04	100	1	340.92	0;
	577	441.93	0	30000	-30000	1.04	100	1	541.93	0;
	578	198.72	0	30000	-30000	1.04	100	1	298.72	0;
	579	144.55	0	30000	-30000	1.04	100	1	244.55	0;
	580	235.98	0	30000	-30000	1.04	100	1	335.98	0;
	581	417.92	0	30000	-30000	1.04	100	1	517.92	0;
	582	419.57	0	30000	-30000	1.04	100	1	519.57	0;
	583	120.46	0	30000	-30000	1.04	100	1	220.46	0;
	585	110.62	0	30000	-30000	1.04	100	1	210.62	0;
	592	208.96	0	30000	-30000	1.04	100	1	308.96	0;
	593	295.01	0	30000	-30000	1.04	100	1	395.01	0;
	594	291.72	0	30000	-30000	1.04	100	1	391.72	0;
	595	333.52	0	30000	-30000	1.04	100	1	433.52	0;
	596	1344.73	0	30000	-30000	1.04	100	1	1444.73	0;
	599	210.11	0	30000	-30000	1.04	100	1	310.11	0;
	601	1421.35	0	30000	-30000	1.04	100	1	1521.35	0;
	602	67.2	0	30000	-30000	1.04	100	1	167.2	0;
	603	81.96	0	30000	-30000	1.04	100	1	181.96	0;
	604	560.17	0	30000	-30000	1.04	100	1	660.17	0;
	606	178.88	0	30000	-30000	1.04	100	1	278.88	0;
	607	757.93	0	30000	-30000	1.04	100	1	857.93	0;
	610	801.34	0	30000	-30000	1.04	100	1	901.34	0;
	616	560.69	0	30000	-30000	1.04	100	1	660.69	0;
	617	1668.43	0	30000	-30000	1.04	100	1	1768.43	0;
	619	458.97	0	30000	-30000	1.04	100	1	558.97	0;
	621	2088.95	0	30000	-30000	1.04	100	1	2188.95	0;
	623	1488.56	0	30000	-30000	1.04	100	1	1588.56	0;
	624	1116.42	0	30000	-30000	1.04	100	1	1216.42	0;
	627	1587.8	0	30000	-30000	1.04	100	1	1687.8	0;
	629	469.36	0	30000	-30000	1.04	100	1	569.36	0;
	630	548.08	0	30000	-30000	1.04	100	1	648.08	0;
	631	1042.13	0	30000	-30000	1.04	100	1	1142.13	0;
	632	1042.13	0	30000	-30000	1.04	100	1	1142.13	0;
	634	2145.93	0	30000	-30000	1.04	100	1	2245.93	0;
	637	220.91	0	30000	-30000	1.04	100	1	320.91	0;
	638	987.52	0	30000	-30000	1.04	100	1	1087.52	0;
	640	2752.81	0	30000	-30000	1.04	100	1	2852.81	0;
	645	1210.24	0	30000	-30000	1.04	100	1	1310.24	0;
	647	321.37	0	30000	-30000	1.04	100	1	421.37	0;
	658	572.36	0	30000	-30000	1.04	100	1	672.36	0;
	667	1743.62	0	30000	-30000	1.04	100	1	1843.62	0;
	669	902.23	0	30000	-30000	1.04	100	1	1002.23	0;
	671	698.86	0	30000	-30000	1.04	100	1	798.86	0;
	675	852.6	0	30000	-30000	1.04	100	1	952.6	0;
	676	393.46	0	30000	-30000	1.04	100	1	493.46	0;
	677	1817.04	0	30000	-30000	1.04	100	1	1917.04	0;
	679	838.63	0	30000	-30000	1.04	100	1	938.63	0;
	680	838.63	0	30000	-30000	1.04	100	1	938.63	0;
	681	1530.8	0	30000	-30000	1.04	100	1	1630.8	0;
	682	456.35	0	30000	-30000	1.04	100	1	556.35	0;
	690	222.79	0	30000	-30000	1.04	100	1	322.79	0;
	694	120.45	0	30000	-30000	1.04	100	1	220.45	0;
	697	260.47	0	30000	-30000	1.04	100	1	360.47	0;
	698	196.38	0	30000	-30000	1.04	100	1	296.38	0;
...
];

%% branch data
%	fbus	tbus	r	x	b	rateA	rateB	rateC	ratio	angle	status
branch = [
	1	2	0	0.02348	0	9900	0	0	1	0	1;
	1	2	0	0.02345	0	9900	0	0	1	0	1;
	1	79	0	0.02073	0	1260	0	0	1	0	1;
	6	2	0	0.01533	0	9900	0	0	1	0	1;
	6	2	0	0.01603	0	9900	0	0	1	0	1;
	4	3	0	0.05409	0	9900	0	0	1	0	1;
	5	3	0	0.08701	0	9900	0	0	1	0	1;
	4	8	0	0.10355	0	9900	0	0	1	0	1;
	8	4	0	0.10192	0	9900	0	0	1	0	1;
	5	7	0	0.03086	0	9900	0	0	1	0	1;
	6	7	0	0.03288	0	9900	0	0	1	0	1;
	6	7	0	0.06928	0	9900	0	0	1	0	1;
	6	7	0	0.07738	0	9900	0	0	1	0	1;
	7	6	0	0.0342	0	9900	0	0	1	0	1;
	10	6	0	0.06738	0	9900	0	0	1	0	1;
	20	6	0	0.08181	0	9900	0	0	1	0	1;
	20	6	0	0.08486	0	9900	0	0	1	0	1;
	7	8	0	0.03422	0	9900	0	0	1	0	1;
	8	7	0	0.10063	0	9900	0	0	1	0	1;
	9	8	0	0.0695	0	9900	0	0	1	0	1;
	9	8	0	0.07077	0	9900	0	0	1	0	1;
	8	127	0	0.0596	0	340	0	0	1	0	1;
	8	133	0	0.04468	0	340	0	0	1	0	1;
	11	9	0	0.05734	0	9900	0	0	1	0	1;
	13	9	0	0.06538	0	9900	0	0	1	0	1;
	12	10	0	0.04151	0	9900	0	0	1	0	1;
	13	11	0	0.03911	0	9900	0	0	1	0	1;
	12	15	0	0.04595	0	9900	0	0	1	0	1;
	15	13	0	0.10509	0	9900	0	0	1	0	1;
	15	13	0	0.10067	0	9900	0	0	1	0	1;
	15	14	0	0.0239	0	9900	0	0	1	0	1;
	15	16	0	0.05326	0	9900	0	0	1	0	1;
	15	17	0	0.07751	0	9900	0	0	1	0	1;
	17	16	0	0.05277	0	9900	0	0	1	0	1;
	20	17	0	0.05854	0	9900	0	0	1	0	1;
	20	17	0	0.04853	0	9900	0	0	1	0	1;
	19	18	0	0.02887	0	9900	0	0	1	0	1;
	18	165	0	0.00575	0	750	0	0	1	0	1;
	20	19	0	0.03769	0	9900	0	0	1	0	1;
	20	21	0	0.06336	0	9900	0	0	1	0	1;
	20	21	0	0.03603	0	9900	0	0	1	0	1;
	21	20	0	0.02275	0	9900	0	0	1	0	1;
	22	20	0	0.1024	0	9900	0	0	1	0	1;
	20	23	0	0.0365	0	9900	0	0	1	0	1;
	22	21	0	0.04487	0	9900	0	0	1	0	1;
	23	21	0	0.02735	0	9900	0	0	1	0	1;
	24	23	0	0.05243	0	9900	0	0	1	0	1;
	24	23	0	0.04553	0	9900	0	0	1	0	1;
	27	25	0	0.02092	0	9900	0	0	1	0	1;
	27	25	0	0.01888	0	9900	0	0	1	0	1;
	26	28	0	0.01544	0	9900	0	0	1	0	1;
	31	26	0	0.04173	0	9900	0	0	1	0	1;
	29	27	0	0.02338	0	9900	0	0	1	0	1;
	69	27	0	0.0358	0	9900	0	0	1	0	1;
	28	31	0	0.03084	0	9900	0	0	1	0	1;
	29	34	0	0.05167	0	9900	0	0	1	0	1;
	29	36	0	0.09907	0	9900	0	0	1	0	1;
	29	40	0	0.05288	0	9900	0	0	1	0	1;
	29	46	0	0.05976	0	9900	0	0	1	0	1;
	29	61	0	0.11974	0	9900	0	0	1	0	1;
	29	79	0	0.12431	0	9900	0	0	1	0	1;
	31	30	0	0.02725	0	9900	0	0	1	0	1;
	35	30	0	0.18509	0	9900	0	0	1	0	1;
	35	30	0	0.18427	0	9900	0	0	1	0	1;
	31	32	0	0.01114	0	9900	0	0	1	0	1;
	33	31	0	0.01922	0	9900	0	0	1	0	1;
	31	47	0	0.13426	0	9900	0	0	1	0	1;
	31	51	0	0.02187	0	9900	0	0	1	0	1;
	32	51	0	0.03249	0	9900	0	0	1	0	1;
	38	35	0	0.03555	0	9900	0	0	1	0	1;
	42	35	0	0.02622	0	9900	0	0	1	0	1;
	43	37	0	0.01839	0	9900	0	0	1	0	1;
	37	45	0	0.03107	0	9900	0	0	1	0	1;
	37	45	0	0.03587	0	9900	0	0	1	0	1;
	37	49	0	0.02353	0	9900	0	0	1	0	1;
	42	38	0	0.02651	0	9900	0	0	1	0	1;
	38	64	0	0.10463	0	9900	0	0	1	0	1;
	43	39	0	0.02113	0	9900	0	0	1	0	1;
	49	39	0	0.03257	0	9900	0	0	1	0	1;
	49	39	0	0.0209	0	9900	0	0	1	0	1;
	39	495	0	0.07118	0	1270	0	0	1	0	1;
	39	515	0	0.08438	0	420	0	0	1	0	1;
	44	40	0	0.04046	0	9900	0	0	1	0	1;
	45	41	0	0.02078	0	9900	0	0	1	0	1;
	41	48	0	0.04416	0	9900	0	0	1	0	1;
	54	42	0	0.03793	0	9900	0	0	1	0	1;
	57	42	0	0.04225	0	9900	0	0	1	0	1;
	45	60	0	0.07579	0	9900	0	0	1	0	1;
	45	64	0	0.01624	0	9900	0	0	1	0	1;
	70	45	0	0.0555	0	9900	0	0	1	0	1;
	45	88	0	0.1284	0	9900	0	0	1	0	1;
	55	46	0	0.06678	0	9900	0	0	1	0	1;
	47	63	0	0.05378	0	9900	0	0	1	0	1;
	48	49	0	0.03258	0	9900	0	0	1	0	1;
	48	59	0	0.03903	0	9900	0	0	1	0	1;
	58	49	0	0.04732	0	9900	0	0	1	0	1;
	59	49	0	0.01855	0	9900	0	0	1	0	1;
	64	49	0	0.04336	0	9900	0	0	1	0	1;
	49	65	0	0.11351	0	9900	0	0	1	0	1;
	49	65	0	0.1083	0	9900	0	0	1	0	1;
	63	50	0	0.06031	0	9900	0	0	1	0	1;
	51	54	0	0.03914	0	9900	0	0	1	0	1;
	63	51	0	0.04515	0	9900	0	0	1	0	1;
	105	51	0	0.02751	0	9900	0	0	1	0	1;
	56	52	0	0.02997	0	9900	0	0	1	0	1;
	69	53	0	0.01599	0	9900	0	0	1	0	1;
	54	70	0	0.02292	0	9900	0	0	1	0	1;
	55	74	0	0.04521	0	9900	0	0	1	0	1;
	57	56	0	0.09463	0	9900	0	0	1	0	1;
	56	88	0	0.07783	0	9900	0	0	1	0	1;
	59	58	0	0.03497	0	9900	0	0	1	0	1;
	59	95	0	0.09639	0	9900	0	0	1	0	1;
	88	60	0	0.08339	0	9900	0	0	1	0	1;
	61	63	0	0.12575	0	9900	0	0	1	0	1;
	79	61	0	0.06433	0	9900	0	0	1	0	1;
	61	80	0	0.06031	0	9900	0	0	1	0	1;
	67	62	0	0.02955	0	9900	0	0	1	0	1;
	63	69	0	0.00605	0	9900	0	0	1	0	1;
	63	73	0	0.0435	0	9900	0	0	1	0	1;
	76	63	0	0.02757	0	9900	0	0	1	0	1;
	80	63	0	0.02861	0	9900	0	0	1	0	1;
	63	105	0	0.23205	0	9900	0	0	1	0	1;
	64	67	0	0.03905	0	9900	0	0	1	0	1;
	70	64	0	0.0479	0	9900	0	0	1	0	1;
	64	95	0	0.07112	0	9900	0	0	1	0	1;
	97	64	0	0.07379	0	9900	0	0	1	0	1;
	65	77	0	0.05136	0	9900	0	0	1	0	1;
	82	65	0	0.04502	0	9900	0	0	1	0	1;
	66	86	0	0.01924	0	9900	0	0	1	0	1;
	67	85	0	0.07118	0	9900	0	0	1	0	1;
	88	67	0	0.11507	0	9900	0	0	1	0	1;
	68	69	0	0.04837	0	9900	0	0	1	0	1;
	69	73	0	0.0397	0	9900	0	0	1	0	1;
	69	105	0	0.20714	0	9900	0	0	1	0	1;
	69	105	0	0.06601	0	9900	0	0	1	0	1;
	105	69	0	0.03247	0	9900	0	0	1	0	1;
	73	70	0	0.05862	0	9900	0	0	1	0	1;
	73	70	0	0.05993	0	9900	0	0	1	0	1;
	70	95	0	0.02719	0	9900	0	0	1	0	1;
	79	71	0	0.0549	0	9900	0	0	1	0	1;
	80	71	0	0.05105	0	9900	0	0	1	0	1;
	80	71	0	0.05089	0	9900	0	0	1	0	1;
	72	83	0	0.02887	0	9900	0	0	1	0	1;
	74	79	0	0.06329	0	9900	0	0	1	0	1;
	74	79	0	0.02933	0	9900	0	0	1	0	1;
	77	75	0	0.12732	0	9900	0	0	1	0	1;
	75	84	0	0.07673	0	9900	0	0	1	0	1;
	75	107	0	0.07719	0	9900	0	0	1	0	1;
	75	531	0	0.04977	0	330	0	0	1	0	1;
	80	76	0	0.01579	0	9900	0	0	1	0	1;
	78	115	0	0.04348	0	9900	0	0	1	0	1;
	79	80	0	0.01766	0	9900	0	0	1	0	1;
	80	87	0	0.05234	0	9900	0	0	1	0	1;
	80	91	0	0.04809	0	9900	0	0	1	0	1;
	80	98	0	0.14331	0	9900	0	0	1	0	1;
	84	81	0	0.04475	0	9900	0	0	1	0	1;
	97	82	0	0.06533	0	9900	0	0	1	0	1;
	83	93	0	0.05018	0	9900	0	0	1	0	1;
	83	96	0	0.10203	0	9900	0	0	1	0	1;
	93	84	0	0.10716	0	9900	0	0	1	0	1;
	85	89	0	0.04601	0	9900	0	0	1	0	1;
	90	86	0	0.0734	0	9900	0	0	1	0	1;
	93	86	0	0.03013	0	9900	0	0	1	0	1;
	87	92	0	0.04796	0	9900	0	0	1	0	1;
	88	99	0	0.11827	0	9900	0	0	1	0	1;
	99	88	0	0.12187	0	9900	0	0	1	0	1;
	89	94	0	0.03254	0	9900	0	0	1	0	1;
	90	103	0	0.06485	0	9900	0	0	1	0	1;
	92	105	0	0.21646	0	9900	0	0	1	0	1;
	93	118	0	0.13996	0	9900	0	0	1	0	1;
	122	93	0	0.08512	0	9900	0	0	1	0	1;
	94	97	0	0.02965	0	9900	0	0	1	0	1;
	95	105	0	0.01991	0	9900	0	0	1	0	1;
	127	95	0	0.09607	0	9900	0	0	1	0	1;
	127	95	0	0.09022	0	9900	0	0	1	0	1;
	95	146	0	0.08139	0	9900	0	0	1	0	1;
	106	96	0	0.06157	0	9900	0	0	1	0	1;
	97	104	0	0.03486	0	9900	0	0	1	0	1;
	107	97	0	0.03857	0	9900	0	0	1	0	1;
	116	98	0	0.16496	0	9900	0	0	1	0	1;
	99	105	0	0.0583	0	9900	0	0	1	0	1;
	105	99	0	0.06619	0	9900	0	0	1	0	1;
	101	100	0	0.08493	0	9900	0	0	1	0	1;
	101	111	0	0.05131	0	9900	0	0	1	0	1;
	122	101	0	0.0295	0	9900	0	0	1	0	1;
	101	532	0	0.0424	0	1650	0	0	1	0	1;
	102	110	0	0.05339	0	9900	0	0	1	0	1;
	103	128	0	0.03647	0	9900	0	0	1	0	1;
	104	108	0	0.04456	0	9900	0	0	1	0	1;
	104	110	0	0.03123	0	9900	0	0	1	0	1;
	104	120	0	0.04252	0	9900	0	0	1	0	1;
	105	109	0	0.04398	0	9900	0	0	1	0	1;
	114	105	0	0.0701	0	9900	0	0	1	0	1;
	105	116	0	0.01375	0	9900	0	0	1	0	1;
	123	105	0	0.10867	0	9900	0	0	1	0	1;
	105	140	0	0.04299	0	9900	0	0	1	0	1;
	105	146	0	0.08242	0	9900	0	0	1	0	1;
	106	115	0	0.0319	0	9900	0	0	1	0	1;
	107	119	0	0.03008	0	9900	0	0	1	0	1;
	107	119	0	0.02432	0	9900	0	0	1	0	1;
...
];

%%-----  OPF Data  -----%%
%% area data
%	area	refbus
areas = [
	1	1;
];

%% generator cost data
%	1	startup	shutdown	n	x1	y1	...	xn	yn
%	2	startup	shutdown	n	c(n-1)	...	c0
gencost = [
	2	0	0	3	0.0120014882	20	0;
	2	0	0	3	0.012412646	20	0;
	2	0	0	3	0.0314851547	20	0;
	2	0	0	3	0.0420238696	20	0;
	2	0	0	3	0.0406454497	20	0;
	2	0	0	3	0.0224890928	20	0;
	2	0	0	3	0.0129473303	20	0;
	2	0	0	3	0.00840484455	20	0;
	2	0	0	3	0.00787742723	20	0;
	2	0	0	3	0.0530025971	20	0;
	2	0	0	3	0.0115726007	20	0;
	2	0	0	3	0.0102618833	20	0;
	2	0	0	3	0.0530025971	20	0;
	2	0	0	3	0.0206637186	20	0;
	2	0	0	3	0.0157980379	20	0;
	2	0	0	3	0.0488495921	20	0;
	2	0	0	3	0.0277970813	20	0;
	2	0	0	3	0.0277970813	20	0;
	2	0	0	3	0.0277970813	20	0;
	2	0	0	3	0.0161838485	20	0;
	2	0	0	3	0.0277970813	20	0;
	2	0	0	3	0.0290427509	20	0;
	2	0	0	3	0.0205435832	20	0;
	2	0	0	3	0.0277970813	20	0;
	2	0	0	3	0.0530025971	20	0;
	2	0	0	3	0.0277970813	20	0;
	2	0	0	3	0.0277970813	20	0;
	2	0	0	3	0.0277970813	20	0;
	2	0	0	3	0.0277970813	20	0;
	2	0	0	3	0.0277970813	20	0;
	2	0	0	3	0.0277970813	20	0;
	2	0	0	3	0.0277970813	20	0;
	2	0	0	3	0.0277970813	20	0;
	2	0	0	3	0.0277970813	20	0;
	2	0	0	3	0.0277970813	20	0;
	2	0	0	3	0.0277970813	20	0;
	2	0	0	3	0.0277970813	20	0;
	2	0	0	3	0.0277970813	20	0;
	2	0	0	3	0.0277970813	20	0;
	2	0	0	3	0.0277970813	20	0;
	2	0	0	3	0.0277970813	20	0;
	2	0	0	3	0.0277970813	20	0;
	2	0	0	3	0.0277970813	20	0;
	2	0	0	3	0.0308156914	20	0;
	2	0	0	3	0.0277970813	20	0;
	2	0	0	3	0.0277970813	20	0;
	2	0	0	3	0.0203856974	20	0;
	2	0	0	3	0.0277970813	20	0;
	2	0	0	3	0.00961936185	20	0;
	2	0	0	3	0.00515841492	20	0;
	2	0	0	3	0.00975210158	20	0;
	2	0	0	3	0.0662514907	20	0;
	2	0	0	3	0.00994421297	20	0;
	2	0	0	3	0.0662514907	20	0;
	2	0	0	3	0.0277970813	20	0;
	2	0	0	3	0.00977909035	20	0;
	2	0	0	3	0.0337598326	20	0;
	2	0	0	3	0.0277970813	20	0;
	2	0	0	3	0.0277970813	20	0;
	2	0	0	3	0.0277970813	20	0;
	2	0	0	3	0.00541673663	20	0;
	2	0	0	3	0.0277970813	20	0;
	2	0	0	3	0.0277970813	20	0;
	2	0	0	3	0.0277970813	20	0;
	2	0	0	3	0.0103420103	20	0;
	2	0	0	3	0.0251794032	20	0;
	2	0	0	3	0.0277970813	20	0;
	2	0	0	3	0.0123548307	20	0;
	2	0	0	3	0.0929886554	20	0;
	2	0	0	3	0.0277970813	20	0;
	2	0	0	3	0.0140777656	20	0;
	2	0	0	3	0.0186629838	20	0;
	2	0	0	3	0.0264641279	20	0;
	2	0	0	3	0.00226837611	20	0;
	2	0	0	3	0.0127158516	20	0;
	2	0	0	3	0.0511796919	20	0;
	2	0	0	3	0.00489835905	20	0;
	2	0	0	3	0.00476360605	20	0;
	2	0	0	3	0.0120954086	20	0;
	2	0	0	3	0.00238179168	20	0;
	2	0	0	3	0.00238179168	20	0;
	2	0	0	3	0.00619267901	20	0;
	2	0	0	3	0.00476360605	20	0;
	2	0	0	3	0.0142106011	20	0;
	2	0	0	3	0.0112663362	20	0;
	2	0	0	3	0.0120954086	20	0;
	2	0	0	3	0.0619271736	20	0;
	2	0	0	3	0.00529285359	20	0;
	2	0	0	3	0.0123852813	20	0;
	2	0	0	3	0.00809500295	20	0;
	2	0	0	3	0.0120954086	20	0;
	2	0	0	3	0.00476360605	20	0;
	2	0	0	3	0.0168739348	20	0;
	2	0	0	3	0.0120954086	20	0;
	2	0	0	3	0.0108577633	20	0;
	2	0	0	3	0.00344037486	20	0;
	2	0	0	3	0.00688074973	20	0;
	2	0	0	3	0.00476360605	20	0;
	2	0	0	3	0.00344037486	20	0;
	2	0	0	3	0.0275224308	20	0;
	2	0	0	3	0.049942566	20	0;
	2	0	0	3	0.0120954086	20	0;
	2	0	0	3	0.00427080308	20	0;
	2	0	0	3	0.0120954086	20	0;
	2	0	0	3	0.00338396879	20	0;
	2	0	0	3	0.0120954086	20	0;
	2	0	0	3	0.0123852813	20	0;
	2	0	0	3	0.00476360605	20	0;
	2	0	0	3	0.0120954086	20	0;
	2	0	0	3	0.0120954086	20	0;
	2	0	0	3	0.0120954086	20	0;
	2	0	0	3	0.0120954086	20	0;
	2	0	0	3	0.00344037486	20	0;
	2	0	0	3	0.0120954086	20	0;
	2	0	0	3	0.0619271736	20	0;
	2	0	0	3	0.0120954086	20	0;
	2	0	0	3	0.0119967369	20	0;
	2	0	0	3	0.0120954086	20	0;
	2	0	0	3	0.010280028	20	0;
	2	0	0	3	0.0120954086	20	0;
	2	0	0	3	0.00476360605	20	0;
	2	0	0	3	0.0120954086	20	0;
	2	0	0	3	0.0120954086	20	0;
	2	0	0	3	0.0120954086	20	0;
	2	0	0	3	0.00476360605	20	0;
	2	0	0	3	0.0247708695	20	0;
	2	0	0	3	0.0120954086	20	0;
	2	0	0	3	0.0247708695	20	0;
	2	0	0	3	0.0120954086	20	0;
	2	0	0	3	0.0120954086	20	0;
	2	0	0	3	0.00249801408	20	0;
	2	0	0	3	0.0198235702	20	0;
	2	0	0	3	0.0164155094	20	0;
	2	0	0	3	0.0520372587	20	0;
	2	0	0	3	0.015015015	20	0;
	2	0	0	3	0.00351364171	20	0;
	2	0	0	3	0.0250175123	20	0;
	2	0	0	3	0.0401832356	20	0;
	2	0	0	3	0.00894110494	20	0;
	2	0	0	3	0.0874967189	20	0;
	2	0	0	3	0.0408079984	20	0;
	2	0	0	3	0.0151242457	20	0;
	2	0	0	3	0.00611691879	20	0;
	2	0	0	3	0.122025625	20	0;
	2	0	0	3	0.042371086	20	0;
	2	0	0	3	0.0343748926	20	0;
	2	0	0	3	0.0415075544	20	0;
	2	0	0	3	0.022628018	20	0;
	2	0	0	3	0.0503220612	20	0;
	2	0	0	3	0.0691802145	20	0;
	2	0	0	3	0.0423764726	20	0;
	2	0	0	3	0.0239280245	20	0;
	2	0	0	3	0.0238339252	20	0;
	2	0	0	3	0.0830151087	20	0;
	2	0	0	3	0.0903995661	20	0;
	2	0	0	3	0.047856049	20	0;
	2	0	0	3	0.033897156	20	0;
	2	0	0	3	0.034279446	20	0;
	2	0	0	3	0.0299832094	20	0;
	2	0	0	3	0.00743643705	20	0;
	2	0	0	3	0.0475941174	20	0;
	2	0	0	3	0.00703556478	20	0;
	2	0	0	3	0.148809524	20	0;
	2	0	0	3	0.122010737	20	0;
	2	0	0	3	0.0178517236	20	0;
	2	0	0	3	0.0559033989	20	0;
	2	0	0	3	0.0131938306	20	0;
	2	0	0	3	0.0124790975	20	0;
	2	0	0	3	0.0178351674	20	0;
	2	0	0	3	0.00599365871	20	0;
	2	0	0	3	0.0217879164	20	0;
	2	0	0	3	0.00478709399	20	0;
	2	0	0	3	0.00671790186	20	0;
	2	0	0	3	0.00895720249	20	0;
	2	0	0	3	0.00629802242	20	0;
	2	0	0	3	0.0213056076	20	0;
	2	0	0	3	0.0182455116	20	0;
	2	0	0	3	0.00959573182	20	0;
	2	0	0	3	0.00959573182	20	0;
	2	0	0	3	0.00465998425	20	0;
	2	0	0	3	0.0452673034	20	0;
	2	0	0	3	0.0101263772	20	0;
	2	0	0	3	0.00363265173	20	0;
	2	0	0	3	0.0082628239	20	0;
	2	0	0	3	0.0311167813	20	0;
	2	0	0	3	0.0174715214	20	0;
	2	0	0	3	0.0057351946	20	0;
	2	0	0	3	0.0110836483	20	0;
	2	0	0	3	0.0143090175	20	0;
	2	0	0	3	0.0117288295	20	0;
	2	0	0	3	0.0254155441	20	0;
	2	0	0	3	0.00550345617	20	0;
	2	0	0	3	0.0119242097	20	0;
	2	0	0	3	0.0119242097	20	0;
	2	0	0	3	0.00653253201	20	0;
	2	0	0	3	0.0219130054	20	0;
	2	0	0	3	0.044885318	20	0;
	2	0	0	3	0.0830220008	20	0;
	2	0	0	3	0.0383921373	20	0;
	2	0	0	3	0.0509216825	20	0;
...
];

% Warnings from cdf2matp conversion:
%
% ***** area data conversion not yet implemented (creating dummy area data)
% ***** Insufficient generation, setting Pmax at slack bus (bus 1) to 32326.1
% ***** MVA limit of branch 1 - 2 not given, set to 9900
% ***** MVA limit of branch 1 - 2 not given, set to 9900
% ***** MVA limit of branch 6 - 2 not given, set to 9900
% ***** MVA limit of branch 6 - 2 not given, set to 9900
% ***** MVA limit of branch 4 - 3 not given, set to 9900
% ***** MVA limit of branch 5 - 3 not given, set to 9900
% ***** MVA limit of branch 4 - 8 not given, set to 9900
% ***** MVA limit of branch 8 - 4 not given, set to 9900
% ***** MVA limit of branch 5 - 7 not given, set to 9900
% ***** MVA limit of branch 6 - 7 not given, set to 9900
% ***** MVA limit of branch 6 - 7 not given, set to 9900
% ***** MVA limit of branch 6 - 7 not given, set to 9900
% ***** MVA limit of branch 7 - 6 not given, set to 9900
% ***** MVA limit of branch 10 - 6 not given, set to 9900
% ***** MVA limit of branch 20 - 6 not given, set to 9900
% ***** MVA limit of branch 20 - 6 not given, set to 9900
% ***** MVA limit of branch 7 - 8 not given, set to 9900
% ***** MVA limit of branch 8 - 7 not given, set to 9900
% ***** MVA limit of branch 9 - 8 not given, set to 9900
% ***** MVA limit of branch 9 - 8 not given, set to 9900
% ***** MVA limit of branch 11 - 9 not given, set to 9900
% ***** MVA limit of branch 13 - 9 not given, set to 9900
% ***** MVA limit of branch 12 - 10 not given, set to 9900
% ***** MVA limit of branch 13 - 11 not given, set to 9900
% ***** MVA limit of branch 12 - 15 not given, set to 9900
% ***** MVA limit of branch 15 - 13 not given, set to 9900
% ***** MVA limit of branch 15 - 13 not given, set to 9900
% ***** MVA limit of branch 15 - 14 not given, set to 9900
% ***** MVA limit of branch 15 - 16 not given, set to 9900
% ***** MVA limit of branch 15 - 17 not given, set to 9900
% ***** MVA limit of branch 17 - 16 not given, set to 9900
% ***** MVA limit of branch 20 - 17 not given, set to 9900
% ***** MVA limit of branch 20 - 17 not given, set to 9900
% ***** MVA limit of branch 19 - 18 not given, set to 9900
% ***** MVA limit of branch 20 - 19 not given, set to 9900
% ***** MVA limit of branch 20 - 21 not given, set to 9900
% ***** MVA limit of branch 20 - 21 not given, set to 9900
% ***** MVA limit of branch 21 - 20 not given, set to 9900
% ***** MVA limit of branch 22 - 20 not given, set to 9900
% ***** MVA limit of branch 20 - 23 not given, set to 9900
% ***** MVA limit of branch 22 - 21 not given, set to 9900
% ***** MVA limit of branch 23 - 21 not given, set to 9900
% ***** MVA limit of branch 24 - 23 not given, set to 9900
% ***** MVA limit of branch 24 - 23 not given, set to 9900
% ***** MVA limit of branch 27 - 25 not given, set to 9900
% ***** MVA limit of branch 27 - 25 not given, set to 9900
% ***** MVA limit of branch 26 - 28 not given, set to 9900
% ***** MVA limit of branch 31 - 26 not given, set to 9900
% ***** MVA limit of branch 29 - 27 not given, set to 9900
% ***** MVA limit of branch 69 - 27 not given, set to 9900
% ***** MVA limit of branch 28 - 31 not given, set to 9900
% ***** MVA limit of branch 29 - 34 not given, set to 9900
% ***** MVA limit of branch 29 - 36 not given, set to 9900
% ***** MVA limit of branch 29 - 40 not given, set to 9900
% ***** MVA limit of branch 29 - 46 not given, set to 9900
% ***** MVA limit of branch 29 - 61 not given, set to 9900
% ***** MVA limit of branch 29 - 79 not given, set to 9900
% ***** MVA limit of branch 31 - 30 not given, set to 9900
% ***** MVA limit of branch 35 - 30 not given, set to 9900
% ***** MVA limit of branch 35 - 30 not given, set to 9900
% ***** MVA limit of branch 31 - 32 not given, set to 9900
% ***** MVA limit of branch 33 - 31 not given, set to 9900
% ***** MVA limit of branch 31 - 47 not given, set to 9900
% ***** MVA limit of branch 31 - 51 not given, set to 9900
% ***** MVA limit of branch 32 - 51 not given, set to 9900
% ***** MVA limit of branch 38 - 35 not given, set to 9900
% ***** MVA limit of branch 42 - 35 not given, set to 9900
% ***** MVA limit of branch 43 - 37 not given, set to 9900
% ***** MVA limit of branch 37 - 45 not given, set to 9900
% ***** MVA limit of branch 37 - 45 not given, set to 9900
% ***** MVA limit of branch 37 - 49 not given, set to 9900
% ***** MVA limit of branch 42 - 38 not given, set to 9900
% ***** MVA limit of branch 38 - 64 not given, set to 9900
% ***** MVA limit of branch 43 - 39 not given, set to 9900
% ***** MVA limit of branch 49 - 39 not given, set to 9900
% ***** MVA limit of branch 49 - 39 not given, set to 9900
% ***** MVA limit of branch 44 - 40 not given, set to 9900
% ***** MVA limit of branch 45 - 41 not given, set to 9900
% ***** MVA limit of branch 41 - 48 not given, set to 9900
% ***** MVA limit of branch 54 - 42 not given, set to 9900
% ***** MVA limit of branch 57 - 42 not given, set to 9900
% ***** MVA limit of branch 45 - 60 not given, set to 9900
% ***** MVA limit of branch 45 - 64 not given, set to 9900
% ***** MVA limit of branch 70 - 45 not given, set to 9900
% ***** MVA limit of branch 45 - 88 not given, set to 9900
% ***** MVA limit of branch 55 - 46 not given, set to 9900
% ***** MVA limit of branch 47 - 63 not given, set to 9900
% ***** MVA limit of branch 48 - 49 not given, set to 9900
% ***** MVA limit of branch 48 - 59 not given, set to 9900
% ***** MVA limit of branch 58 - 49 not given, set to 9900
% ***** MVA limit of branch 59 - 49 not given, set to 9900
% ***** MVA limit of branch 64 - 49 not given, set to 9900
% ***** MVA limit of branch 49 - 65 not given, set to 9900
% ***** MVA limit of branch 49 - 65 not given, set to 9900
% ***** MVA limit of branch 63 - 50 not given, set to 9900
% ***** MVA limit of branch 51 - 54 not given, set to 9900
% ***** MVA limit of branch 63 - 51 not given, set to 9900
% ***** MVA limit of branch 105 - 51 not given, set to 9900
% ***** MVA limit of branch 56 - 52 not given, set to 9900
% ***** MVA limit of branch 69 - 53 not given, set to 9900
% ***** MVA limit of branch 54 - 70 not given, set to 9900
% ***** MVA limit of branch 55 - 74 not given, set to 9900
% ***** MVA limit of branch 57 - 56 not given, set to 9900
% ***** MVA limit of branch 56 - 88 not given, set to 9900
% ***** MVA limit of branch 59 - 58 not given, set to 9900
% ***** MVA limit of branch 59 - 95 not given, set to 9900
% ***** MVA limit of branch 88 - 60 not given, set to 9900
% ***** MVA limit of branch 61 - 63 not given, set to 9900
% ***** MVA limit of branch 79 - 61 not given, set to 9900
% ***** MVA limit of branch 61 - 80 not given, set to 9900
% ***** MVA limit of branch 67 - 62 not given, set to 9900
% ***** MVA limit of branch 63 - 69 not given, set to 9900
% ***** MVA limit of branch 63 - 73 not given, set to 9900
% ***** MVA limit of branch 76 - 63 not given, set to 9900
% ***** MVA limit of branch 80 - 63 not given, set to 9900
% ***** MVA limit of branch 63 - 105 not given, set to 9900
% ***** MVA limit of branch 64 - 67 not given, set to 9900
% ***** MVA limit of branch 70 - 64 not given, set to 9900
% ***** MVA limit of branch 64 - 95 not given, set to 9900
% ***** MVA limit of branch 97 - 64 not given, set to 9900
% ***** MVA limit of branch 65 - 77 not given, set to 9900
% ***** MVA limit of branch 82 - 65 not given, set to 9900
% ***** MVA limit of branch 66 - 86 not given, set to 9900
% ***** MVA limit of branch 67 - 85 not given, set to 9900
% ***** MVA limit of branch 88 - 67 not given, set to 9900
% ***** MVA limit of branch 68 - 69 not given, set to 9900
% ***** MVA limit of branch 69 - 73 not given, set to 9900
% ***** MVA limit of branch 69 - 105 not given, set to 9900
% ***** MVA limit of branch 69 - 105 not given, set to 9900
% ***** MVA limit of branch 105 - 69 not given, set to 9900
% ***** MVA limit of branch 73 - 70 not given, set to 9900
% ***** MVA limit of branch 73 - 70 not given, set to 9900
% ***** MVA limit of branch 70 - 95 not given, set to 9900
% ***** MVA limit of branch 79 - 71 not given, set to 9900
% ***** MVA limit of branch 80 - 71 not given, set to 9900
% ***** MVA limit of branch 80 - 71 not given, set to 9900
% ***** MVA limit of branch 72 - 83 not given, set to 9900
% ***** MVA limit of branch 74 - 79 not given, set to 9900
% ***** MVA limit of branch 74 - 79 not given, set to 9900
% ***** MVA limit of branch 77 - 75 not given, set to 9900
% ***** MVA limit of branch 75 - 84 not given, set to 9900
% ***** MVA limit of branch 75 - 107 not given, set to 9900
% ***** MVA limit of branch 80 - 76 not given, set to 9900
% ***** MVA limit of branch 78 - 115 not given, set to 9900
% ***** MVA limit of branch 79 - 80 not given, set to 9900
% ***** MVA limit of branch 80 - 87 not given, set to 9900
% ***** MVA limit of branch 80 - 91 not given, set to 9900
% ***** MVA limit of branch 80 - 98 not given, set to 9900
% ***** MVA limit of branch 84 - 81 not given, set to 9900
% ***** MVA limit of branch 97 - 82 not given, set to 9900
% ***** MVA limit of branch 83 - 93 not given, set to 9900
% ***** MVA limit of branch 83 - 96 not given, set to 9900
% ***** MVA limit of branch 93 - 84 not given, set to 9900
% ***** MVA limit of branch 85 - 89 not given, set to 9900
% ***** MVA limit of branch 90 - 86 not given, set to 9900
% ***** MVA limit of branch 93 - 86 not given, set to 9900
% ***** MVA limit of branch 87 - 92 not given, set to 9900
% ***** MVA limit of branch 88 - 99 not given, set to 9900
% ***** MVA limit of branch 99 - 88 not given, set to 9900
% ***** MVA limit of branch 89 - 94 not given, set to 9900
% ***** MVA limit of branch 90 - 103 not given, set to 9900
% ***** MVA limit of branch 92 - 105 not given, set to 9900
% ***** MVA limit of branch 93 - 118 not given, set to 9900
% ***** MVA limit of branch 122 - 93 not given, set to 9900
% ***** MVA limit of branch 94 - 97 not given, set to 9900
% ***** MVA limit of branch 95 - 105 not given, set to 9900
% ***** MVA limit of branch 127 - 95 not given, set to 9900
% ***** MVA limit of branch 127 - 95 not given, set to 9900
% ***** MVA limit of branch 95 - 146 not given, set to 9900
% ***** MVA limit of branch 106 - 96 not given, set to 9900
% ***** MVA limit of branch 97 - 104 not given, set to 9900
% ***** MVA limit of branch 107 - 97 not given, set to 9900
% ***** MVA limit of branch 116 - 98 not given, set to 9900
% ***** MVA limit of branch 99 - 105 not given, set to 9900
% ***** MVA limit of branch 105 - 99 not given, set to 9900
% ***** MVA limit of branch 101 - 100 not given, set to 9900
% ***** MVA limit of branch 101 - 111 not given, set to 9900
% ***** MVA limit of branch 122 - 101 not given, set to 9900
% ***** MVA limit of branch 102 - 110 not given, set to 9900
% ***** MVA limit of branch 103 - 128 not given, set to 9900
% ***** MVA limit of branch 104 - 108 not given, set to 9900
% ***** MVA limit of branch 104 - 110 not given, set to 9900
% ***** MVA limit of branch 104 - 120 not given, set to 9900
% ***** MVA limit of branch 105 - 109 not given, set to 9900
% ***** MVA limit of branch 114 - 105 not given, set to 9900
% ***** MVA limit of branch 105 - 116 not given, set to 9900
% ***** MVA limit of branch 123 - 105 not given, set to 9900
% ***** MVA limit of branch 105 - 140 not given, set to 9900
% ***** MVA limit of branch 105 - 146 not given, set to 9900
% ***** MVA limit of branch 106 - 115 not given, set to 9900
% ***** MVA limit of branch 107 - 119 not given, set to 9900
% ***** MVA limit of branch 107 - 119 not given, set to 9900
% ***** MVA limit of branch 107 - 131 not given, set to 9900
% ***** MVA limit of branch 136 - 107 not given, set to 9900
% ***** MVA limit of branch 108 - 119 not given, set to 9900
% ***** MVA limit of branch 116 - 109 not given, set to 9900
% ***** MVA limit of branch 142 - 109 not given, set to 9900
% ***** MVA limit of branch 111 - 115 not given, set to 9900
% ***** MVA limit of branch 113 - 112 not given, set to 9900
% ***** MVA limit of branch 113 - 112 not given, set to 9900
% ***** MVA limit of branch 114 - 113 not given, set to 9900
% ***** MVA limit of branch 114 - 127 not given, set to 9900
% ***** MVA limit of branch 114 - 127 not given, set to 9900
% ***** MVA limit of branch 114 - 135 not given, set to 9900
% ***** MVA limit of branch 118 - 115 not given, set to 9900
% ***** MVA limit of branch 122 - 115 not given, set to 9900
% ***** MVA limit of branch 132 - 115 not given, set to 9900
% ***** MVA limit of branch 138 - 115 not given, set to 9900
% ***** MVA limit of branch 116 - 125 not given, set to 9900
% ***** MVA limit of branch 127 - 116 not given, set to 9900
% ***** MVA limit of branch 116 - 147 not given, set to 9900
% ***** MVA limit of branch 117 - 124 not given, set to 9900
% ***** MVA limit of branch 128 - 117 not given, set to 9900
% ***** MVA limit of branch 118 - 122 not given, set to 9900
% ***** MVA limit of branch 118 - 129 not given, set to 9900
% ***** MVA limit of branch 141 - 118 not given, set to 9900
% ***** MVA limit of branch 119 - 121 not given, set to 9900
% ***** MVA limit of branch 121 - 131 not given, set to 9900
% ***** MVA limit of branch 122 - 126 not given, set to 9900
% ***** MVA limit of branch 128 - 122 not given, set to 9900
% ***** MVA limit of branch 129 - 122 not given, set to 9900
% ***** MVA limit of branch 122 - 130 not given, set to 9900
% ***** MVA limit of branch 132 - 122 not given, set to 9900
% ***** MVA limit of branch 131 - 123 not given, set to 9900
% ***** MVA limit of branch 124 - 137 not given, set to 9900
% ***** MVA limit of branch 133 - 127 not given, set to 9900
% ***** MVA limit of branch 133 - 127 not given, set to 9900
% ***** MVA limit of branch 127 - 135 not given, set to 9900
% ***** MVA limit of branch 128 - 131 not given, set to 9900
% ***** MVA limit of branch 131 - 128 not given, set to 9900
% ***** MVA limit of branch 128 - 138 not given, set to 9900
% ***** MVA limit of branch 134 - 129 not given, set to 9900
% ***** MVA limit of branch 138 - 129 not given, set to 9900
% ***** MVA limit of branch 130 - 137 not given, set to 9900
% ***** MVA limit of branch 139 - 131 not given, set to 9900
% ***** MVA limit of branch 131 - 143 not given, set to 9900
% ***** MVA limit of branch 139 - 132 not given, set to 9900
% ***** MVA limit of branch 133 - 164 not given, set to 9900
% ***** MVA limit of branch 141 - 134 not given, set to 9900
% ***** MVA limit of branch 136 - 138 not given, set to 9900
% ***** MVA limit of branch 136 - 159 not given, set to 9900
% ***** MVA limit of branch 138 - 141 not given, set to 9900
% ***** MVA limit of branch 141 - 138 not given, set to 9900
% ***** MVA limit of branch 147 - 140 not given, set to 9900
% ***** MVA limit of branch 150 - 141 not given, set to 9900
% ***** MVA limit of branch 149 - 142 not given, set to 9900
% ***** MVA limit of branch 154 - 144 not given, set to 9900
% ***** MVA limit of branch 168 - 144 not given, set to 9900
% ***** MVA limit of branch 145 - 146 not given, set to 9900
% ***** MVA limit of branch 145 - 147 not given, set to 9900
% ***** MVA limit of branch 146 - 148 not given, set to 9900
% ***** MVA limit of branch 148 - 146 not given, set to 9900
% ***** MVA limit of branch 149 - 146 not given, set to 9900
% ***** MVA limit of branch 149 - 146 not given, set to 9900
% ***** MVA limit of branch 151 - 146 not given, set to 9900
% ***** MVA limit of branch 146 - 154 not given, set to 9900
% ***** MVA limit of branch 146 - 154 not given, set to 9900
% ***** MVA limit of branch 147 - 149 not given, set to 9900
% ***** MVA limit of branch 149 - 151 not given, set to 9900
% ***** MVA limit of branch 149 - 154 not given, set to 9900
% ***** MVA limit of branch 149 - 155 not given, set to 9900
% ***** MVA limit of branch 164 - 149 not given, set to 9900
% ***** MVA limit of branch 150 - 159 not given, set to 9900
% ***** MVA limit of branch 151 - 154 not given, set to 9900
% ***** MVA limit of branch 151 - 158 not given, set to 9900
% ***** MVA limit of branch 160 - 151 not given, set to 9900
% ***** MVA limit of branch 162 - 151 not given, set to 9900
% ***** MVA limit of branch 166 - 151 not given, set to 9900
% ***** MVA limit of branch 154 - 152 not given, set to 9900
% ***** MVA limit of branch 166 - 153 not given, set to 9900
% ***** MVA limit of branch 154 - 156 not given, set to 9900
% ***** MVA limit of branch 157 - 154 not given, set to 9900
% ***** MVA limit of branch 164 - 154 not given, set to 9900
% ***** MVA limit of branch 168 - 154 not given, set to 9900
% ***** MVA limit of branch 172 - 154 not given, set to 9900
% ***** MVA limit of branch 155 - 166 not given, set to 9900
% ***** MVA limit of branch 160 - 156 not given, set to 9900
% ***** MVA limit of branch 163 - 157 not given, set to 9900
% ***** MVA limit of branch 157 - 174 not given, set to 9900
% ***** MVA limit of branch 158 - 168 not given, set to 9900
% ***** MVA limit of branch 159 - 170 not given, set to 9900
% ***** MVA limit of branch 159 - 172 not given, set to 9900
% ***** MVA limit of branch 159 - 172 not given, set to 9900
% ***** MVA limit of branch 160 - 167 not given, set to 9900
% ***** MVA limit of branch 171 - 160 not given, set to 9900
% ***** MVA limit of branch 166 - 161 not given, set to 9900
% ***** MVA limit of branch 169 - 161 not given, set to 9900
% ***** MVA limit of branch 163 - 165 not given, set to 9900
% ***** MVA limit of branch 169 - 163 not given, set to 9900
% ***** MVA limit of branch 188 - 164 not given, set to 9900
% ***** MVA limit of branch 164 - 193 not given, set to 9900
% ***** MVA limit of branch 178 - 166 not given, set to 9900
% ***** MVA limit of branch 173 - 167 not given, set to 9900
% ***** MVA limit of branch 175 - 168 not given, set to 9900
% ***** MVA limit of branch 168 - 180 not given, set to 9900
% ***** MVA limit of branch 172 - 170 not given, set to 9900
% ***** MVA limit of branch 171 - 179 not given, set to 9900
% ***** MVA limit of branch 172 - 175 not given, set to 9900
% ***** MVA limit of branch 172 - 175 not given, set to 9900
% ***** MVA limit of branch 172 - 175 not given, set to 9900
% ***** MVA limit of branch 176 - 172 not given, set to 9900
% ***** MVA limit of branch 181 - 173 not given, set to 9900
% ***** MVA limit of branch 193 - 174 not given, set to 9900
% ***** MVA limit of branch 174 - 199 not given, set to 9900
% ***** MVA limit of branch 176 - 175 not given, set to 9900
% ***** MVA limit of branch 175 - 177 not given, set to 9900
% ***** MVA limit of branch 183 - 175 not given, set to 9900
% ***** MVA limit of branch 175 - 189 not given, set to 9900
% ***** MVA limit of branch 183 - 176 not given, set to 9900
% ***** MVA limit of branch 199 - 178 not given, set to 9900
% ***** MVA limit of branch 182 - 179 not given, set to 9900
% ***** MVA limit of branch 180 - 185 not given, set to 9900
% ***** MVA limit of branch 181 - 182 not given, set to 9900
% ***** MVA limit of branch 181 - 184 not given, set to 9900
% ***** MVA limit of branch 183 - 186 not given, set to 9900
% ***** MVA limit of branch 183 - 189 not given, set to 9900
% ***** MVA limit of branch 201 - 183 not given, set to 9900
% ***** MVA limit of branch 187 - 184 not given, set to 9900
% ***** MVA limit of branch 194 - 184 not given, set to 9900
% ***** MVA limit of branch 185 - 192 not given, set to 9900
% ***** MVA limit of branch 191 - 187 not given, set to 9900
% ***** MVA limit of branch 188 - 190 not given, set to 9900
% ***** MVA limit of branch 188 - 199 not given, set to 9900
% ***** MVA limit of branch 189 - 197 not given, set to 9900
% ***** MVA limit of branch 191 - 193 not given, set to 9900
% ***** MVA limit of branch 195 - 191 not given, set to 9900
% ***** MVA limit of branch 207 - 192 not given, set to 9900
% ***** MVA limit of branch 194 - 193 not given, set to 9900
% ***** MVA limit of branch 193 - 208 not given, set to 9900
% ***** MVA limit of branch 204 - 194 not given, set to 9900
% ***** MVA limit of branch 199 - 195 not given, set to 9900
% ***** MVA limit of branch 196 - 201 not given, set to 9900
% ***** MVA limit of branch 197 - 198 not given, set to 9900
% ***** MVA limit of branch 198 - 201 not given, set to 9900
% ***** MVA limit of branch 202 - 199 not given, set to 9900
% ***** MVA limit of branch 202 - 199 not given, set to 9900
% ***** MVA limit of branch 199 - 203 not given, set to 9900
% ***** MVA limit of branch 199 - 203 not given, set to 9900
% ***** MVA limit of branch 199 - 203 not given, set to 9900
% ***** MVA limit of branch 200 - 201 not given, set to 9900
% ***** MVA limit of branch 207 - 200 not given, set to 9900
% ***** MVA limit of branch 203 - 212 not given, set to 9900
% ***** MVA limit of branch 203 - 214 not given, set to 9900
% ***** MVA limit of branch 203 - 215 not given, set to 9900
% ***** MVA limit of branch 205 - 204 not given, set to 9900
% ***** MVA limit of branch 204 - 206 not given, set to 9900
% ***** MVA limit of branch 205 - 207 not given, set to 9900
% ***** MVA limit of branch 208 - 205 not given, set to 9900
% ***** MVA limit of branch 208 - 205 not given, set to 9900
% ***** MVA limit of branch 206 - 211 not given, set to 9900
% ***** MVA limit of branch 208 - 210 not given, set to 9900
% ***** MVA limit of branch 215 - 208 not given, set to 9900
% ***** MVA limit of branch 215 - 208 not given, set to 9900
% ***** MVA limit of branch 211 - 209 not given, set to 9900
% ***** MVA limit of branch 213 - 210 not given, set to 9900
% ***** MVA limit of branch 212 - 215 not given, set to 9900
% ***** MVA limit of branch 215 - 213 not given, set to 9900
% ***** MVA limit of branch 214 - 215 not given, set to 9900
% ***** MVA limit of branch 215 - 216 not given, set to 9900
% ***** MVA limit of branch 218 - 217 not given, set to 9900
% ***** MVA limit of branch 218 - 219 not given, set to 9900
% ***** MVA limit of branch 218 - 221 not given, set to 9900
% ***** MVA limit of branch 218 - 222 not given, set to 9900
% ***** MVA limit of branch 227 - 218 not given, set to 9900
% ***** MVA limit of branch 223 - 219 not given, set to 9900
% ***** MVA limit of branch 232 - 219 not given, set to 9900
% ***** MVA limit of branch 221 - 220 not given, set to 9900
% ***** MVA limit of branch 221 - 222 not given, set to 9900
% ***** MVA limit of branch 222 - 224 not given, set to 9900
% ***** MVA limit of branch 224 - 222 not given, set to 9900
% ***** MVA limit of branch 224 - 222 not given, set to 9900
% ***** MVA limit of branch 222 - 225 not given, set to 9900
% ***** MVA limit of branch 225 - 222 not given, set to 9900
% ***** MVA limit of branch 232 - 222 not given, set to 9900
% ***** MVA limit of branch 223 - 232 not given, set to 9900
% ***** MVA limit of branch 224 - 226 not given, set to 9900
% ***** MVA limit of branch 224 - 226 not given, set to 9900
% ***** MVA limit of branch 224 - 233 not given, set to 9900
% ***** MVA limit of branch 233 - 224 not given, set to 9900
% ***** MVA limit of branch 224 - 237 not given, set to 9900
% ***** MVA limit of branch 225 - 227 not given, set to 9900
% ***** MVA limit of branch 225 - 239 not given, set to 9900
% ***** MVA limit of branch 226 - 230 not given, set to 9900
% ***** MVA limit of branch 227 - 232 not given, set to 9900
% ***** MVA limit of branch 239 - 227 not given, set to 9900
% ***** MVA limit of branch 229 - 232 not given, set to 9900
% ***** MVA limit of branch 237 - 230 not given, set to 9900
% ***** MVA limit of branch 231 - 232 not given, set to 9900
% ***** MVA limit of branch 238 - 231 not given, set to 9900
% ***** MVA limit of branch 232 - 236 not given, set to 9900
% ***** MVA limit of branch 232 - 264 not given, set to 9900
% ***** MVA limit of branch 264 - 232 not given, set to 9900
% ***** MVA limit of branch 233 - 241 not given, set to 9900
% ***** MVA limit of branch 233 - 243 not given, set to 9900
% ***** MVA limit of branch 240 - 234 not given, set to 9900
% ***** MVA limit of branch 235 - 238 not given, set to 9900
% ***** MVA limit of branch 238 - 235 not given, set to 9900
% ***** MVA limit of branch 239 - 237 not given, set to 9900
% ***** MVA limit of branch 239 - 237 not given, set to 9900
% ***** MVA limit of branch 237 - 259 not given, set to 9900
% ***** MVA limit of branch 242 - 238 not given, set to 9900
% ***** MVA limit of branch 238 - 258 not given, set to 9900
% ***** MVA limit of branch 238 - 260 not given, set to 9900
% ***** MVA limit of branch 238 - 261 not given, set to 9900
% ***** MVA limit of branch 238 - 264 not given, set to 9900
% ***** MVA limit of branch 247 - 239 not given, set to 9900
% ***** MVA limit of branch 239 - 249 not given, set to 9900
% ***** MVA limit of branch 239 - 251 not given, set to 9900
% ***** MVA limit of branch 240 - 241 not given, set to 9900
% ***** MVA limit of branch 241 - 254 not given, set to 9900
% ***** MVA limit of branch 241 - 255 not given, set to 9900
% ***** MVA limit of branch 242 - 246 not given, set to 9900
% ***** MVA limit of branch 243 - 262 not given, set to 9900
% ***** MVA limit of branch 244 - 255 not given, set to 9900
% ***** MVA limit of branch 255 - 244 not given, set to 9900
% ***** MVA limit of branch 246 - 245 not given, set to 9900
% ***** MVA limit of branch 245 - 258 not given, set to 9900
% ***** MVA limit of branch 246 - 258 not given, set to 9900
% ***** MVA limit of branch 247 - 264 not given, set to 9900
% ***** MVA limit of branch 248 - 258 not given, set to 9900
% ***** MVA limit of branch 249 - 256 not given, set to 9900
% ***** MVA limit of branch 250 - 266 not given, set to 9900
% ***** MVA limit of branch 305 - 250 not given, set to 9900
% ***** MVA limit of branch 252 - 259 not given, set to 9900
% ***** MVA limit of branch 258 - 253 not given, set to 9900
% ***** MVA limit of branch 253 - 268 not given, set to 9900
% ***** MVA limit of branch 254 - 255 not given, set to 9900
% ***** MVA limit of branch 254 - 255 not given, set to 9900
% ***** MVA limit of branch 254 - 278 not given, set to 9900
% ***** MVA limit of branch 255 - 257 not given, set to 9900
% ***** MVA limit of branch 255 - 257 not given, set to 9900
% ***** MVA limit of branch 255 - 278 not given, set to 9900
% ***** MVA limit of branch 255 - 278 not given, set to 9900
% ***** MVA limit of branch 256 - 264 not given, set to 9900
% ***** MVA limit of branch 256 - 272 not given, set to 9900
% ***** MVA limit of branch 256 - 289 not given, set to 9900
% ***** MVA limit of branch 257 - 263 not given, set to 9900
% ***** MVA limit of branch 257 - 287 not given, set to 9900
% ***** MVA limit of branch 258 - 265 not given, set to 9900
% ***** MVA limit of branch 258 - 269 not given, set to 9900
% ***** MVA limit of branch 258 - 277 not given, set to 9900
% ***** MVA limit of branch 262 - 259 not given, set to 9900
% ***** MVA limit of branch 267 - 259 not given, set to 9900
% ***** MVA limit of branch 259 - 270 not given, set to 9900
% ***** MVA limit of branch 264 - 260 not given, set to 9900
% ***** MVA limit of branch 261 - 276 not given, set to 9900
% ***** MVA limit of branch 302 - 262 not given, set to 9900
% ***** MVA limit of branch 263 - 281 not given, set to 9900
% ***** MVA limit of branch 264 - 272 not given, set to 9900
% ***** MVA limit of branch 272 - 264 not given, set to 9900
...